/*--------------------------------*- C++ -*----------------------------------*\
| =========                 |                                                 |
| \\      /  F ield         | OpenFOAM: The Open Source CFD Toolbox           |
|  \\    /   O peration     | Version:  2.2.0                                 |
|   \\  /    A nd           | Web:      www.OpenFOAM.org                      |
|    \\/     M anipulation  |                                                 |
\*---------------------------------------------------------------------------*/
FoamFile
{
    version     2.0;
    format      ascii;
    class       dictionary;
    location    "system";
    object      fvSolution;
}
// * * * * * * * * * * * * * * * * * * * * * * * * * * * * * * * * * * * * * //

solvers
{
    p
    {
      solver     GAMG;
      tolerance 1e-07;
      relTol     0.001;
      smoother   DIC;
      cacheAgglomeration true;
      nCellsInCoarsestLevel 10;
      agglomerator faceAreaPair;
      mergeLevels   1;
    }
    pFinal
    {
      $p 
      tolerance 1e-07;
      relTol     0;
    }

    U 
    {
        solver          PBiCG;
        preconditioner  DILU;
        tolerance       1e-05;
        relTol          0.1;
    }

    UFinal
    {
        $U;
        tolerance       1e-05;
        relTol          0;
    }
}

PIMPLE
{
    nCorrectors     4;
    nNonOrthogonalCorrectors 0;
    pRefCell        1001;
    pRefValue       0;
}

// ************************************************************************* //
